35
alkyne_wat_ptna_opt_ts.log
C         -0.20605       -2.36195        1.44065
S          0.91405       -0.94459        1.44109
C          3.94745       -1.14512       -0.58095
C          2.73603       -0.25547       -0.84681
C          1.46785       -1.07593       -0.83939
C          0.72982       -1.80225       -1.53285
C          1.87907        1.87800       -0.00037
C          1.83804        2.82366        1.17355
N          2.75929        0.85952        0.08377
O          1.14102        2.02447       -0.97348
H          3.98453       -1.94845       -1.31614
H          3.87277       -1.58740        0.41516
H          2.80613        0.16467       -1.85387
H         -0.95891       -1.16120       -0.82563
H          0.54945       -2.19288       -2.51678
H          3.22785        0.71463        0.96730
H          1.75303        3.84583        0.80713
H          4.86745       -0.56083       -0.64672
H          0.94196        2.59170        1.75475
H          2.70985        2.73303        1.82021
H          0.15749       -3.16172        2.08676
H         -0.25667       -2.74721        0.40757
H         -1.21229       -2.08163        1.75647
C         -5.24287        0.38709        0.19045
C         -3.80495        0.18410       -0.13269
N         -2.90646        1.23025       -0.25384
C         -3.07964       -0.94433       -0.36612
C         -1.69158        0.76082       -0.54422
N         -1.78264       -0.55501       -0.61706
H         -5.74322       -0.57839        0.23948
H         -5.73055        0.99412       -0.57409
H         -3.12852        2.21063       -0.13935
H         -3.38016       -1.97765       -0.37065
H         -0.78650        1.33712       -0.69183
H         -5.35698        0.88833        1.15303
